Materials Studio SDF calculation
TCVAMP81A 

  4  0  0  0  0  0              1 V2000
    1.6665   -0.9622   -0.0050 Ga  0  0
    1.6665   -0.9622    2.0367 N   0  0
   -1.6665    0.9622    2.7040 Ga  0  0
   -1.6665    0.9622   -0.6723 N   0  0
M  END

> <DENSITY OF STATES FERMI>
BIOVIA, TYPE=DOUBLE, VERSION=1                                                  
     0.00000000

> <BAND GAP>
BIOVIA, TYPE=DOUBLE, VERSION=1                                                  
     0.10025278

> <TOTAL ENERGY>
BIOVIA, TYPE=DOUBLE, VERSION=1                                                  
 -3959.67237135

> <BINDING ENERGY>
BIOVIA, TYPE=DOUBLE, VERSION=1                                                  
    -0.60098292

> <OPERATION STATUS>
BIOVIA, TYPE=STATUS, VERSION=1                                                  
SUCCESS

$$$$
