Materials Studio SDF calculation
TCVAMP81A 

  4  0  0  0  0  0              1 V2000
    1.6105   -0.9298   -0.0048 Ga  0  0
    1.6105   -0.9298    1.9687 N   0  0
   -1.6105    0.9298    2.6137 Ga  0  0
   -1.6105    0.9298   -0.6498 N   0  0
M  END

> <DENSITY OF STATES FERMI>
BIOVIA, TYPE=DOUBLE, VERSION=1                                                  
     0.00000000

> <BAND GAP>
BIOVIA, TYPE=DOUBLE, VERSION=1                                                  
     0.12551640

> <TOTAL ENERGY>
BIOVIA, TYPE=DOUBLE, VERSION=1                                                  
 -3959.67610968

> <BINDING ENERGY>
BIOVIA, TYPE=DOUBLE, VERSION=1                                                  
    -0.60472125

> <OPERATION STATUS>
BIOVIA, TYPE=STATUS, VERSION=1                                                  
SUCCESS

$$$$
