Materials Studio SDF calculation
TCVAMP81A 

  8  0  0  0  0  0              1 V2000
    0.0000    0.0000    0.0000 Si  0  0
    0.0000    2.6605    2.6605 Si  0  0
    2.6605    0.0000    2.6605 Si  0  0
    2.6605    2.6605    0.0000 Si  0  0
   -1.3302    1.3302   -1.3302 Si  0  0
    1.3302    1.3302    1.3302 Si  0  0
    1.3302   -1.3302   -1.3302 Si  0  0
   -1.3302   -1.3302    1.3302 Si  0  0
M  END

> <DENSITY OF STATES FERMI>
BIOVIA, TYPE=DOUBLE, VERSION=1                                                  
     0.00000000

> <BAND GAP>
BIOVIA, TYPE=DOUBLE, VERSION=1                                                  
     0.09784201

> <TOTAL ENERGY>
BIOVIA, TYPE=DOUBLE, VERSION=1                                                  
 -2316.21919244

> <BINDING ENERGY>
BIOVIA, TYPE=DOUBLE, VERSION=1                                                  
    -1.15154533

> <OPERATION STATUS>
BIOVIA, TYPE=STATUS, VERSION=1                                                  
SUCCESS

$$$$
