Materials Studio SDF calculation
TCVAMP81A 

  8  0  0  0  0  0              1 V2000
    0.0000    0.0000    0.0000 Si  0  0
    0.0000    2.6470    2.6470 Si  0  0
    2.6470    0.0000    2.6470 Si  0  0
    2.6470    2.6470    0.0000 Si  0  0
   -1.3235    1.3235   -1.3235 Si  0  0
    1.3235    1.3235    1.3235 Si  0  0
    1.3235   -1.3235   -1.3235 Si  0  0
   -1.3235   -1.3235    1.3235 Si  0  0
M  END

> <DENSITY OF STATES FERMI>
BIOVIA, TYPE=DOUBLE, VERSION=1                                                  
     0.00000000

> <BAND GAP>
BIOVIA, TYPE=DOUBLE, VERSION=1                                                  
     0.09754783

> <TOTAL ENERGY>
BIOVIA, TYPE=DOUBLE, VERSION=1                                                  
 -2316.21228858

> <BINDING ENERGY>
BIOVIA, TYPE=DOUBLE, VERSION=1                                                  
    -1.14464148

> <OPERATION STATUS>
BIOVIA, TYPE=STATUS, VERSION=1                                                  
SUCCESS

$$$$
