Materials Studio SDF calculation
TCVAMP81A 

  4  0  0  0  0  0              1 V2000
    1.5385   -0.8883   -0.0046 Ga  0  0
    1.5385   -0.8883    1.8811 N   0  0
   -1.5385    0.8883    2.4974 Ga  0  0
   -1.5385    0.8883   -0.6209 N   0  0
M  END

> <DENSITY OF STATES FERMI>
BIOVIA, TYPE=DOUBLE, VERSION=1                                                  
     0.00000000

> <BAND GAP>
BIOVIA, TYPE=DOUBLE, VERSION=1                                                  
     0.16223403

> <TOTAL ENERGY>
BIOVIA, TYPE=DOUBLE, VERSION=1                                                  
 -3959.65076604

> <BINDING ENERGY>
BIOVIA, TYPE=DOUBLE, VERSION=1                                                  
    -0.57937761

> <OPERATION STATUS>
BIOVIA, TYPE=STATUS, VERSION=1                                                  
SUCCESS

$$$$
