Materials Studio SDF calculation
TCVAMP81A 

  8  0  0  0  0  0              1 V2000
    0.0000    0.0000    0.0000 Si  0  0
    0.0000    2.7830    2.7830 Si  0  0
    2.7830    0.0000    2.7830 Si  0  0
    2.7830    2.7830    0.0000 Si  0  0
   -1.3915    1.3915   -1.3915 Si  0  0
    1.3915    1.3915    1.3915 Si  0  0
    1.3915   -1.3915   -1.3915 Si  0  0
   -1.3915   -1.3915    1.3915 Si  0  0
M  END

> <DENSITY OF STATES FERMI>
BIOVIA, TYPE=DOUBLE, VERSION=1                                                  
     0.00000000

> <BAND GAP>
BIOVIA, TYPE=DOUBLE, VERSION=1                                                  
     0.09773838

> <TOTAL ENERGY>
BIOVIA, TYPE=DOUBLE, VERSION=1                                                  
 -2316.24372612

> <BINDING ENERGY>
BIOVIA, TYPE=DOUBLE, VERSION=1                                                  
    -1.17607902

> <OPERATION STATUS>
BIOVIA, TYPE=STATUS, VERSION=1                                                  
SUCCESS

$$$$
