Materials Studio SDF calculation
TCVAMP81A 

  8  0  0  0  0  0              1 V2000
    0.0000    0.0000    0.0000 Si  0  0
    0.0000    2.7285    2.7285 Si  0  0
    2.7285    0.0000    2.7285 Si  0  0
    2.7285    2.7285    0.0000 Si  0  0
   -1.3643    1.3642   -1.3643 Si  0  0
    1.3642    1.3642    1.3642 Si  0  0
    1.3642   -1.3643   -1.3643 Si  0  0
   -1.3643   -1.3643    1.3642 Si  0  0
M  END

> <DENSITY OF STATES FERMI>
BIOVIA, TYPE=DOUBLE, VERSION=1                                                  
     0.00000000

> <BAND GAP>
BIOVIA, TYPE=DOUBLE, VERSION=1                                                  
     0.09832664

> <TOTAL ENERGY>
BIOVIA, TYPE=DOUBLE, VERSION=1                                                  
 -2316.24148993

> <BINDING ENERGY>
BIOVIA, TYPE=DOUBLE, VERSION=1                                                  
    -1.17384283

> <OPERATION STATUS>
BIOVIA, TYPE=STATUS, VERSION=1                                                  
SUCCESS

$$$$
