Materials Studio SDF calculation
TCVAMP81A 

  8  0  0  0  0  0              1 V2000
    0.0000    0.0000    0.0000 Si  0  0
    0.0000    2.8235    2.8235 Si  0  0
    2.8235    0.0000    2.8235 Si  0  0
    2.8235    2.8235    0.0000 Si  0  0
   -1.4117    1.4117   -1.4117 Si  0  0
    1.4117    1.4117    1.4117 Si  0  0
    1.4117   -1.4117   -1.4117 Si  0  0
   -1.4117   -1.4117    1.4117 Si  0  0
M  END

> <DENSITY OF STATES FERMI>
BIOVIA, TYPE=DOUBLE, VERSION=1                                                  
     0.00000000

> <BAND GAP>
BIOVIA, TYPE=DOUBLE, VERSION=1                                                  
     0.09189756

> <TOTAL ENERGY>
BIOVIA, TYPE=DOUBLE, VERSION=1                                                  
 -2316.23850751

> <BINDING ENERGY>
BIOVIA, TYPE=DOUBLE, VERSION=1                                                  
    -1.17086041

> <OPERATION STATUS>
BIOVIA, TYPE=STATUS, VERSION=1                                                  
SUCCESS

$$$$
