Materials Studio SDF calculation
TCVAMP81A 

  4  0  0  0  0  0              1 V2000
    1.5225   -0.8790   -0.0045 Ga  0  0
    1.5225   -0.8790    1.8615 N   0  0
   -1.5225    0.8790    2.4715 Ga  0  0
   -1.5225    0.8790   -0.6145 N   0  0
M  END

> <DENSITY OF STATES FERMI>
BIOVIA, TYPE=DOUBLE, VERSION=1                                                  
     0.00000000

> <BAND GAP>
BIOVIA, TYPE=DOUBLE, VERSION=1                                                  
     0.13907690

> <TOTAL ENERGY>
BIOVIA, TYPE=DOUBLE, VERSION=1                                                  
 -3959.63722237

> <BINDING ENERGY>
BIOVIA, TYPE=DOUBLE, VERSION=1                                                  
    -0.56583394

> <OPERATION STATUS>
BIOVIA, TYPE=STATUS, VERSION=1                                                  
SUCCESS

$$$$
