Materials Studio SDF calculation
TCVAMP81A 

  8  0  0  0  0  0              1 V2000
    0.0000    0.0000    0.0000 Si  0  0
    0.0000    2.8370    2.8370 Si  0  0
    2.8370    0.0000    2.8370 Si  0  0
    2.8370    2.8370    0.0000 Si  0  0
   -1.4185    1.4185   -1.4185 Si  0  0
    1.4185    1.4185    1.4185 Si  0  0
    1.4185   -1.4185   -1.4185 Si  0  0
   -1.4185   -1.4185    1.4185 Si  0  0
M  END

> <DENSITY OF STATES FERMI>
BIOVIA, TYPE=DOUBLE, VERSION=1                                                  
     0.00000000

> <BAND GAP>
BIOVIA, TYPE=DOUBLE, VERSION=1                                                  
     0.08912334

> <TOTAL ENERGY>
BIOVIA, TYPE=DOUBLE, VERSION=1                                                  
 -2316.23588337

> <BINDING ENERGY>
BIOVIA, TYPE=DOUBLE, VERSION=1                                                  
    -1.16823627

> <OPERATION STATUS>
BIOVIA, TYPE=STATUS, VERSION=1                                                  
SUCCESS

$$$$
