Materials Studio SDF calculation
TCVAMP81A 

  8  0  0  0  0  0              1 V2000
    0.0000    0.0000    0.0000 Si  0  0
    0.0000    2.8505    2.8505 Si  0  0
    2.8505    0.0000    2.8505 Si  0  0
    2.8505    2.8505    0.0000 Si  0  0
   -1.4252    1.4252   -1.4252 Si  0  0
    1.4252    1.4252    1.4252 Si  0  0
    1.4252   -1.4252   -1.4252 Si  0  0
   -1.4252   -1.4252    1.4252 Si  0  0
M  END

> <DENSITY OF STATES FERMI>
BIOVIA, TYPE=DOUBLE, VERSION=1                                                  
     0.00000000

> <BAND GAP>
BIOVIA, TYPE=DOUBLE, VERSION=1                                                  
     0.08637947

> <TOTAL ENERGY>
BIOVIA, TYPE=DOUBLE, VERSION=1                                                  
 -2316.23279506

> <BINDING ENERGY>
BIOVIA, TYPE=DOUBLE, VERSION=1                                                  
    -1.16514796

> <OPERATION STATUS>
BIOVIA, TYPE=STATUS, VERSION=1                                                  
SUCCESS

$$$$
