Materials Studio SDF calculation
TCVAMP81A 

  8  0  0  0  0  0              1 V2000
    0.0000    0.0000    0.0000 Si  0  0
    0.0000    2.5795    2.5795 Si  0  0
    2.5795    0.0000    2.5795 Si  0  0
    2.5795    2.5795    0.0000 Si  0  0
   -1.2897    1.2897   -1.2897 Si  0  0
    1.2897    1.2897    1.2897 Si  0  0
    1.2897   -1.2897   -1.2897 Si  0  0
   -1.2897   -1.2897    1.2897 Si  0  0
M  END

> <DENSITY OF STATES FERMI>
BIOVIA, TYPE=DOUBLE, VERSION=1                                                  
     0.00000000

> <BAND GAP>
BIOVIA, TYPE=DOUBLE, VERSION=1                                                  
     0.09531853

> <TOTAL ENERGY>
BIOVIA, TYPE=DOUBLE, VERSION=1                                                  
 -2316.16247540

> <BINDING ENERGY>
BIOVIA, TYPE=DOUBLE, VERSION=1                                                  
    -1.09482830

> <OPERATION STATUS>
BIOVIA, TYPE=STATUS, VERSION=1                                                  
SUCCESS

$$$$
