Materials Studio SDF calculation
TCVAMP81A 

  8  0  0  0  0  0              1 V2000
    0.0000    0.0000    0.0000 Si  0  0
    0.0000    2.8100    2.8100 Si  0  0
    2.8100    0.0000    2.8100 Si  0  0
    2.8100    2.8100    0.0000 Si  0  0
   -1.4050    1.4050   -1.4050 Si  0  0
    1.4050    1.4050    1.4050 Si  0  0
    1.4050   -1.4050   -1.4050 Si  0  0
   -1.4050   -1.4050    1.4050 Si  0  0
M  END

> <DENSITY OF STATES FERMI>
BIOVIA, TYPE=DOUBLE, VERSION=1                                                  
     0.00000000

> <BAND GAP>
BIOVIA, TYPE=DOUBLE, VERSION=1                                                  
     0.09468710

> <TOTAL ENERGY>
BIOVIA, TYPE=DOUBLE, VERSION=1                                                  
 -2316.24075709

> <BINDING ENERGY>
BIOVIA, TYPE=DOUBLE, VERSION=1                                                  
    -1.17310998

> <OPERATION STATUS>
BIOVIA, TYPE=STATUS, VERSION=1                                                  
SUCCESS

$$$$
