Materials Studio SDF calculation
TCVAMP81A 

  8  0  0  0  0  0              1 V2000
    0.0000    0.0000    0.0000 Si  0  0
    0.0000    2.7555    2.7555 Si  0  0
    2.7555    0.0000    2.7555 Si  0  0
    2.7555    2.7555    0.0000 Si  0  0
   -1.3777    1.3778   -1.3777 Si  0  0
    1.3778    1.3778    1.3778 Si  0  0
    1.3778   -1.3777   -1.3777 Si  0  0
   -1.3777   -1.3777    1.3778 Si  0  0
M  END

> <DENSITY OF STATES FERMI>
BIOVIA, TYPE=DOUBLE, VERSION=1                                                  
     0.00000000

> <BAND GAP>
BIOVIA, TYPE=DOUBLE, VERSION=1                                                  
     0.09805816

> <TOTAL ENERGY>
BIOVIA, TYPE=DOUBLE, VERSION=1                                                  
 -2316.24408985

> <BINDING ENERGY>
BIOVIA, TYPE=DOUBLE, VERSION=1                                                  
    -1.17644274

> <OPERATION STATUS>
BIOVIA, TYPE=STATUS, VERSION=1                                                  
SUCCESS

$$$$
