Materials Studio SDF calculation
TCVAMP81A 

  8  0  0  0  0  0              1 V2000
    0.0000    0.0000    0.0000 Si  0  0
    0.0000    2.7150    2.7150 Si  0  0
    2.7150    0.0000    2.7150 Si  0  0
    2.7150    2.7150    0.0000 Si  0  0
   -1.3575    1.3575   -1.3575 Si  0  0
    1.3575    1.3575    1.3575 Si  0  0
    1.3575   -1.3575   -1.3575 Si  0  0
   -1.3575   -1.3575    1.3575 Si  0  0
M  END

> <DENSITY OF STATES FERMI>
BIOVIA, TYPE=DOUBLE, VERSION=1                                                  
     0.00000000

> <BAND GAP>
BIOVIA, TYPE=DOUBLE, VERSION=1                                                  
     0.08706422

> <TOTAL ENERGY>
BIOVIA, TYPE=DOUBLE, VERSION=1                                                  
 -2307.26426492

> <BINDING ENERGY>
BIOVIA, TYPE=DOUBLE, VERSION=1                                                  
    -1.55464685

> <OPERATION STATUS>
BIOVIA, TYPE=STATUS, VERSION=1                                                  
SUCCESS

$$$$
