Materials Studio SDF calculation
TCVAMP81A 

  4  0  0  0  0  0              1 V2000
    1.6265   -0.9391   -0.0048 Ga  0  0
    1.6265   -0.9391    1.9882 N   0  0
   -1.6265    0.9391    2.6397 Ga  0  0
   -1.6265    0.9391   -0.6563 N   0  0
M  END

> <DENSITY OF STATES FERMI>
BIOVIA, TYPE=DOUBLE, VERSION=1                                                  
     0.00000000

> <BAND GAP>
BIOVIA, TYPE=DOUBLE, VERSION=1                                                  
     0.11788853

> <TOTAL ENERGY>
BIOVIA, TYPE=DOUBLE, VERSION=1                                                  
 -3959.67672098

> <BINDING ENERGY>
BIOVIA, TYPE=DOUBLE, VERSION=1                                                  
    -0.60533255

> <OPERATION STATUS>
BIOVIA, TYPE=STATUS, VERSION=1                                                  
SUCCESS

$$$$
