Materials Studio SDF calculation
TCVAMP81A 

  8  0  0  0  0  0              1 V2000
    0.0000    0.0000    0.0000 Si  0  0
    0.0000    2.6745    2.6745 Si  0  0
    2.6745    0.0000    2.6745 Si  0  0
    2.6745    2.6745    0.0000 Si  0  0
   -1.3373    1.3373   -1.3373 Si  0  0
    1.3373    1.3373    1.3373 Si  0  0
    1.3373   -1.3373   -1.3373 Si  0  0
   -1.3373   -1.3373    1.3373 Si  0  0
M  END

> <DENSITY OF STATES FERMI>
BIOVIA, TYPE=DOUBLE, VERSION=1                                                  
     0.00000000

> <BAND GAP>
BIOVIA, TYPE=DOUBLE, VERSION=1                                                  
     0.09811963

> <TOTAL ENERGY>
BIOVIA, TYPE=DOUBLE, VERSION=1                                                  
 -2316.22541447

> <BINDING ENERGY>
BIOVIA, TYPE=DOUBLE, VERSION=1                                                  
    -1.15776737

> <OPERATION STATUS>
BIOVIA, TYPE=STATUS, VERSION=1                                                  
SUCCESS

$$$$
